<NUMBER OF ZONES> 448       
<NUMBER OF NODES> 448       
<FIRST THRU NODE> 1         
<NUMBER OF LINKS> 1650      
<END OF METADATA>


~          Init       node       Term node       Capacity   Length     Free Flow Time B          Power      Speed limit
           0          1          -               0.0        -          -          -          -          -         
           1          0          -               0.0        -          -          -          -          -         
           0          64         -               0.0        -          -          -          -          -         
           64         0          -               0.0        -          -          -          -          -         
           1          2          -               0.0        -          -          -          -          -         
           2          1          -               0.0        -          -          -          -          -         
           1          65         -               0.0        -          -          -          -          -         
           65         1          -               0.0        -          -          -          -          -         
           2          3          -               0.0        -          -          -          -          -         
           3          2          -               0.0        -          -          -          -          -         
           2          66         -               0.0        -          -          -          -          -         
           66         2          -               0.0        -          -          -          -          -         
           3          4          -               0.0        -          -          -          -          -         
           4          3          -               0.0        -          -          -          -          -         
           3          67         -               0.0        -          -          -          -          -         
           67         3          -               0.0        -          -          -          -          -         
           4          5          -               0.0        -          -          -          -          -         
           5          4          -               0.0        -          -          -          -          -         
           4          68         -               0.0        -          -          -          -          -         
           68         4          -               0.0        -          -          -          -          -         
           5          6          -               0.0        -          -          -          -          -         
           6          5          -               0.0        -          -          -          -          -         
           5          69         -               0.0        -          -          -          -          -         
           69         5          -               0.0        -          -          -          -          -         
           6          7          -               0.0        -          -          -          -          -         
           7          6          -               0.0        -          -          -          -          -         
           6          70         -               0.0        -          -          -          -          -         
           70         6          -               0.0        -          -          -          -          -         
           7          8          -               0.0        -          -          -          -          -         
           8          7          -               0.0        -          -          -          -          -         
           7          71         -               0.0        -          -          -          -          -         
           71         7          -               0.0        -          -          -          -          -         
           8          9          -               0.0        -          -          -          -          -         
           9          8          -               0.0        -          -          -          -          -         
           8          72         -               0.0        -          -          -          -          -         
           72         8          -               0.0        -          -          -          -          -         
           9          10         -               0.0        -          -          -          -          -         
           10         9          -               0.0        -          -          -          -          -         
           9          73         -               0.0        -          -          -          -          -         
           73         9          -               0.0        -          -          -          -          -         
           10         11         -               0.0        -          -          -          -          -         
           11         10         -               0.0        -          -          -          -          -         
           10         74         -               0.0        -          -          -          -          -         
           74         10         -               0.0        -          -          -          -          -         
           11         12         -               0.0        -          -          -          -          -         
           12         11         -               0.0        -          -          -          -          -         
           11         75         -               0.0        -          -          -          -          -         
           75         11         -               0.0        -          -          -          -          -         
           12         13         -               0.0        -          -          -          -          -         
           13         12         -               0.0        -          -          -          -          -         
           12         76         -               0.0        -          -          -          -          -         
           76         12         -               0.0        -          -          -          -          -         
           13         14         -               0.0        -          -          -          -          -         
           14         13         -               0.0        -          -          -          -          -         
           13         77         -               0.0        -          -          -          -          -         
           77         13         -               0.0        -          -          -          -          -         
           14         15         -               0.0        -          -          -          -          -         
           15         14         -               0.0        -          -          -          -          -         
           14         78         -               0.0        -          -          -          -          -         
           78         14         -               0.0        -          -          -          -          -         
           15         16         -               0.0        -          -          -          -          -         
           16         15         -               0.0        -          -          -          -          -         
           15         79         -               0.0        -          -          -          -          -         
           79         15         -               0.0        -          -          -          -          -         
           16         17         -               0.0        -          -          -          -          -         
           17         16         -               0.0        -          -          -          -          -         
           16         80         -               0.0        -          -          -          -          -         
           80         16         -               0.0        -          -          -          -          -         
           17         18         -               0.0        -          -          -          -          -         
           18         17         -               0.0        -          -          -          -          -         
           17         81         -               0.0        -          -          -          -          -         
           81         17         -               0.0        -          -          -          -          -         
           18         19         -               0.0        -          -          -          -          -         
           19         18         -               0.0        -          -          -          -          -         
           18         82         -               0.0        -          -          -          -          -         
           82         18         -               0.0        -          -          -          -          -         
           19         20         -               0.0        -          -          -          -          -         
           20         19         -               0.0        -          -          -          -          -         
           19         83         -               0.0        -          -          -          -          -         
           83         19         -               0.0        -          -          -          -          -         
           20         21         -               0.0        -          -          -          -          -         
           21         20         -               0.0        -          -          -          -          -         
           20         84         -               0.0        -          -          -          -          -         
           84         20         -               0.0        -          -          -          -          -         
           21         22         -               0.0        -          -          -          -          -         
           22         21         -               0.0        -          -          -          -          -         
           21         85         -               0.0        -          -          -          -          -         
           85         21         -               0.0        -          -          -          -          -         
           22         23         -               0.0        -          -          -          -          -         
           23         22         -               0.0        -          -          -          -          -         
           22         86         -               0.0        -          -          -          -          -         
           86         22         -               0.0        -          -          -          -          -         
           23         24         -               0.0        -          -          -          -          -         
           24         23         -               0.0        -          -          -          -          -         
           23         87         -               0.0        -          -          -          -          -         
           87         23         -               0.0        -          -          -          -          -         
           24         25         -               0.0        -          -          -          -          -         
           25         24         -               0.0        -          -          -          -          -         
           24         88         -               0.0        -          -          -          -          -         
           88         24         -               0.0        -          -          -          -          -         
           25         26         -               0.0        -          -          -          -          -         
           26         25         -               0.0        -          -          -          -          -         
           25         89         -               0.0        -          -          -          -          -         
           89         25         -               0.0        -          -          -          -          -         
           26         27         -               0.0        -          -          -          -          -         
           27         26         -               0.0        -          -          -          -          -         
           26         90         -               0.0        -          -          -          -          -         
           90         26         -               0.0        -          -          -          -          -         
           27         28         -               0.0        -          -          -          -          -         
           28         27         -               0.0        -          -          -          -          -         
           27         91         -               0.0        -          -          -          -          -         
           91         27         -               0.0        -          -          -          -          -         
           28         29         -               0.0        -          -          -          -          -         
           29         28         -               0.0        -          -          -          -          -         
           28         92         -               0.0        -          -          -          -          -         
           92         28         -               0.0        -          -          -          -          -         
           29         30         -               0.0        -          -          -          -          -         
           30         29         -               0.0        -          -          -          -          -         
           29         93         -               0.0        -          -          -          -          -         
           93         29         -               0.0        -          -          -          -          -         
           30         31         -               0.0        -          -          -          -          -         
           31         30         -               0.0        -          -          -          -          -         
           30         94         -               0.0        -          -          -          -          -         
           94         30         -               0.0        -          -          -          -          -         
           31         32         -               0.0        -          -          -          -          -         
           32         31         -               0.0        -          -          -          -          -         
           31         95         -               0.0        -          -          -          -          -         
           95         31         -               0.0        -          -          -          -          -         
           32         33         -               0.0        -          -          -          -          -         
           33         32         -               0.0        -          -          -          -          -         
           32         96         -               0.0        -          -          -          -          -         
           96         32         -               0.0        -          -          -          -          -         
           33         34         -               0.0        -          -          -          -          -         
           34         33         -               0.0        -          -          -          -          -         
           33         97         -               0.0        -          -          -          -          -         
           97         33         -               0.0        -          -          -          -          -         
           34         35         -               0.0        -          -          -          -          -         
           35         34         -               0.0        -          -          -          -          -         
           34         98         -               0.0        -          -          -          -          -         
           98         34         -               0.0        -          -          -          -          -         
           35         36         -               0.0        -          -          -          -          -         
           36         35         -               0.0        -          -          -          -          -         
           35         99         -               0.0        -          -          -          -          -         
           99         35         -               0.0        -          -          -          -          -         
           36         37         -               0.0        -          -          -          -          -         
           37         36         -               0.0        -          -          -          -          -         
           36         100        -               0.0        -          -          -          -          -         
           100        36         -               0.0        -          -          -          -          -         
           37         38         -               0.0        -          -          -          -          -         
           38         37         -               0.0        -          -          -          -          -         
           37         101        -               0.0        -          -          -          -          -         
           101        37         -               0.0        -          -          -          -          -         
           38         39         -               0.0        -          -          -          -          -         
           39         38         -               0.0        -          -          -          -          -         
           38         102        -               0.0        -          -          -          -          -         
           102        38         -               0.0        -          -          -          -          -         
           39         40         -               0.0        -          -          -          -          -         
           40         39         -               0.0        -          -          -          -          -         
           39         103        -               0.0        -          -          -          -          -         
           103        39         -               0.0        -          -          -          -          -         
           40         41         -               0.0        -          -          -          -          -         
           41         40         -               0.0        -          -          -          -          -         
           40         104        -               0.0        -          -          -          -          -         
           104        40         -               0.0        -          -          -          -          -         
           41         42         -               0.0        -          -          -          -          -         
           42         41         -               0.0        -          -          -          -          -         
           41         105        -               0.0        -          -          -          -          -         
           105        41         -               0.0        -          -          -          -          -         
           42         43         -               0.0        -          -          -          -          -         
           43         42         -               0.0        -          -          -          -          -         
           42         106        -               0.0        -          -          -          -          -         
           106        42         -               0.0        -          -          -          -          -         
           43         44         -               0.0        -          -          -          -          -         
           44         43         -               0.0        -          -          -          -          -         
           43         107        -               0.0        -          -          -          -          -         
           107        43         -               0.0        -          -          -          -          -         
           44         45         -               0.0        -          -          -          -          -         
           45         44         -               0.0        -          -          -          -          -         
           44         108        -               0.0        -          -          -          -          -         
           108        44         -               0.0        -          -          -          -          -         
           45         46         -               0.0        -          -          -          -          -         
           46         45         -               0.0        -          -          -          -          -         
           45         109        -               0.0        -          -          -          -          -         
           109        45         -               0.0        -          -          -          -          -         
           46         47         -               0.0        -          -          -          -          -         
           47         46         -               0.0        -          -          -          -          -         
           46         110        -               0.0        -          -          -          -          -         
           110        46         -               0.0        -          -          -          -          -         
           47         48         -               0.0        -          -          -          -          -         
           48         47         -               0.0        -          -          -          -          -         
           47         111        -               0.0        -          -          -          -          -         
           111        47         -               0.0        -          -          -          -          -         
           48         49         -               0.0        -          -          -          -          -         
           49         48         -               0.0        -          -          -          -          -         
           48         112        -               0.0        -          -          -          -          -         
           112        48         -               0.0        -          -          -          -          -         
           49         50         -               0.0        -          -          -          -          -         
           50         49         -               0.0        -          -          -          -          -         
           49         113        -               0.0        -          -          -          -          -         
           113        49         -               0.0        -          -          -          -          -         
           50         51         -               0.0        -          -          -          -          -         
           51         50         -               0.0        -          -          -          -          -         
           50         114        -               0.0        -          -          -          -          -         
           114        50         -               0.0        -          -          -          -          -         
           51         52         -               0.0        -          -          -          -          -         
           52         51         -               0.0        -          -          -          -          -         
           51         115        -               0.0        -          -          -          -          -         
           115        51         -               0.0        -          -          -          -          -         
           52         53         -               0.0        -          -          -          -          -         
           53         52         -               0.0        -          -          -          -          -         
           52         116        -               0.0        -          -          -          -          -         
           116        52         -               0.0        -          -          -          -          -         
           53         54         -               0.0        -          -          -          -          -         
           54         53         -               0.0        -          -          -          -          -         
           53         117        -               0.0        -          -          -          -          -         
           117        53         -               0.0        -          -          -          -          -         
           54         55         -               0.0        -          -          -          -          -         
           55         54         -               0.0        -          -          -          -          -         
           54         118        -               0.0        -          -          -          -          -         
           118        54         -               0.0        -          -          -          -          -         
           55         56         -               0.0        -          -          -          -          -         
           56         55         -               0.0        -          -          -          -          -         
           55         119        -               0.0        -          -          -          -          -         
           119        55         -               0.0        -          -          -          -          -         
           56         57         -               0.0        -          -          -          -          -         
           57         56         -               0.0        -          -          -          -          -         
           56         120        -               0.0        -          -          -          -          -         
           120        56         -               0.0        -          -          -          -          -         
           57         58         -               0.0        -          -          -          -          -         
           58         57         -               0.0        -          -          -          -          -         
           57         121        -               0.0        -          -          -          -          -         
           121        57         -               0.0        -          -          -          -          -         
           58         59         -               0.0        -          -          -          -          -         
           59         58         -               0.0        -          -          -          -          -         
           58         122        -               0.0        -          -          -          -          -         
           122        58         -               0.0        -          -          -          -          -         
           59         60         -               0.0        -          -          -          -          -         
           60         59         -               0.0        -          -          -          -          -         
           59         123        -               0.0        -          -          -          -          -         
           123        59         -               0.0        -          -          -          -          -         
           60         61         -               0.0        -          -          -          -          -         
           61         60         -               0.0        -          -          -          -          -         
           60         124        -               0.0        -          -          -          -          -         
           124        60         -               0.0        -          -          -          -          -         
           61         62         -               0.0        -          -          -          -          -         
           62         61         -               0.0        -          -          -          -          -         
           61         125        -               0.0        -          -          -          -          -         
           125        61         -               0.0        -          -          -          -          -         
           62         63         -               0.0        -          -          -          -          -         
           63         62         -               0.0        -          -          -          -          -         
           62         126        -               0.0        -          -          -          -          -         
           126        62         -               0.0        -          -          -          -          -         
           63         127        -               0.0        -          -          -          -          -         
           127        63         -               0.0        -          -          -          -          -         
           64         65         -               0.0        -          -          -          -          -         
           65         64         -               0.0        -          -          -          -          -         
           64         128        -               0.0        -          -          -          -          -         
           128        64         -               0.0        -          -          -          -          -         