<NUMBER OF ZONES> 525       
<NUMBER OF NODES> 525       
<FIRST THRU NODE> 1         
<NUMBER OF LINKS> 1936      
<END OF METADATA>


~          Init       node       Term node       Capacity   Length     Free Flow Time B          Power      Speed limit
           0          1          -               0.0        -          -          -          -          -         
           1          0          -               0.0        -          -          -          -          -         
           0          75         -               0.0        -          -          -          -          -         
           75         0          -               0.0        -          -          -          -          -         
           1          2          -               0.0        -          -          -          -          -         
           2          1          -               0.0        -          -          -          -          -         
           1          76         -               0.0        -          -          -          -          -         
           76         1          -               0.0        -          -          -          -          -         
           2          3          -               0.0        -          -          -          -          -         
           3          2          -               0.0        -          -          -          -          -         
           2          77         -               0.0        -          -          -          -          -         
           77         2          -               0.0        -          -          -          -          -         
           3          4          -               0.0        -          -          -          -          -         
           4          3          -               0.0        -          -          -          -          -         
           3          78         -               0.0        -          -          -          -          -         
           78         3          -               0.0        -          -          -          -          -         
           4          5          -               0.0        -          -          -          -          -         
           5          4          -               0.0        -          -          -          -          -         
           4          79         -               0.0        -          -          -          -          -         
           79         4          -               0.0        -          -          -          -          -         
           5          6          -               0.0        -          -          -          -          -         
           6          5          -               0.0        -          -          -          -          -         
           5          80         -               0.0        -          -          -          -          -         
           80         5          -               0.0        -          -          -          -          -         
           6          7          -               0.0        -          -          -          -          -         
           7          6          -               0.0        -          -          -          -          -         
           6          81         -               0.0        -          -          -          -          -         
           81         6          -               0.0        -          -          -          -          -         
           7          8          -               0.0        -          -          -          -          -         
           8          7          -               0.0        -          -          -          -          -         
           7          82         -               0.0        -          -          -          -          -         
           82         7          -               0.0        -          -          -          -          -         
           8          9          -               0.0        -          -          -          -          -         
           9          8          -               0.0        -          -          -          -          -         
           8          83         -               0.0        -          -          -          -          -         
           83         8          -               0.0        -          -          -          -          -         
           9          10         -               0.0        -          -          -          -          -         
           10         9          -               0.0        -          -          -          -          -         
           9          84         -               0.0        -          -          -          -          -         
           84         9          -               0.0        -          -          -          -          -         
           10         11         -               0.0        -          -          -          -          -         
           11         10         -               0.0        -          -          -          -          -         
           10         85         -               0.0        -          -          -          -          -         
           85         10         -               0.0        -          -          -          -          -         
           11         12         -               0.0        -          -          -          -          -         
           12         11         -               0.0        -          -          -          -          -         
           11         86         -               0.0        -          -          -          -          -         
           86         11         -               0.0        -          -          -          -          -         
           12         13         -               0.0        -          -          -          -          -         
           13         12         -               0.0        -          -          -          -          -         
           12         87         -               0.0        -          -          -          -          -         
           87         12         -               0.0        -          -          -          -          -         
           13         14         -               0.0        -          -          -          -          -         
           14         13         -               0.0        -          -          -          -          -         
           13         88         -               0.0        -          -          -          -          -         
           88         13         -               0.0        -          -          -          -          -         
           14         15         -               0.0        -          -          -          -          -         
           15         14         -               0.0        -          -          -          -          -         
           14         89         -               0.0        -          -          -          -          -         
           89         14         -               0.0        -          -          -          -          -         
           15         16         -               0.0        -          -          -          -          -         
           16         15         -               0.0        -          -          -          -          -         
           15         90         -               0.0        -          -          -          -          -         
           90         15         -               0.0        -          -          -          -          -         
           16         17         -               0.0        -          -          -          -          -         
           17         16         -               0.0        -          -          -          -          -         
           16         91         -               0.0        -          -          -          -          -         
           91         16         -               0.0        -          -          -          -          -         
           17         18         -               0.0        -          -          -          -          -         
           18         17         -               0.0        -          -          -          -          -         
           17         92         -               0.0        -          -          -          -          -         
           92         17         -               0.0        -          -          -          -          -         
           18         19         -               0.0        -          -          -          -          -         
           19         18         -               0.0        -          -          -          -          -         
           18         93         -               0.0        -          -          -          -          -         
           93         18         -               0.0        -          -          -          -          -         
           19         20         -               0.0        -          -          -          -          -         
           20         19         -               0.0        -          -          -          -          -         
           19         94         -               0.0        -          -          -          -          -         
           94         19         -               0.0        -          -          -          -          -         
           20         21         -               0.0        -          -          -          -          -         
           21         20         -               0.0        -          -          -          -          -         
           20         95         -               0.0        -          -          -          -          -         
           95         20         -               0.0        -          -          -          -          -         
           21         22         -               0.0        -          -          -          -          -         
           22         21         -               0.0        -          -          -          -          -         
           21         96         -               0.0        -          -          -          -          -         
           96         21         -               0.0        -          -          -          -          -         
           22         23         -               0.0        -          -          -          -          -         
           23         22         -               0.0        -          -          -          -          -         
           22         97         -               0.0        -          -          -          -          -         
           97         22         -               0.0        -          -          -          -          -         
           23         24         -               0.0        -          -          -          -          -         
           24         23         -               0.0        -          -          -          -          -         
           23         98         -               0.0        -          -          -          -          -         
           98         23         -               0.0        -          -          -          -          -         
           24         25         -               0.0        -          -          -          -          -         
           25         24         -               0.0        -          -          -          -          -         
           24         99         -               0.0        -          -          -          -          -         
           99         24         -               0.0        -          -          -          -          -         
           25         26         -               0.0        -          -          -          -          -         
           26         25         -               0.0        -          -          -          -          -         
           25         100        -               0.0        -          -          -          -          -         
           100        25         -               0.0        -          -          -          -          -         
           26         27         -               0.0        -          -          -          -          -         
           27         26         -               0.0        -          -          -          -          -         
           26         101        -               0.0        -          -          -          -          -         
           101        26         -               0.0        -          -          -          -          -         
           27         28         -               0.0        -          -          -          -          -         
           28         27         -               0.0        -          -          -          -          -         
           27         102        -               0.0        -          -          -          -          -         
           102        27         -               0.0        -          -          -          -          -         
           28         29         -               0.0        -          -          -          -          -         
           29         28         -               0.0        -          -          -          -          -         
           28         103        -               0.0        -          -          -          -          -         
           103        28         -               0.0        -          -          -          -          -         
           29         30         -               0.0        -          -          -          -          -         
           30         29         -               0.0        -          -          -          -          -         
           29         104        -               0.0        -          -          -          -          -         
           104        29         -               0.0        -          -          -          -          -         
           30         31         -               0.0        -          -          -          -          -         
           31         30         -               0.0        -          -          -          -          -         
           30         105        -               0.0        -          -          -          -          -         
           105        30         -               0.0        -          -          -          -          -         
           31         32         -               0.0        -          -          -          -          -         
           32         31         -               0.0        -          -          -          -          -         
           31         106        -               0.0        -          -          -          -          -         
           106        31         -               0.0        -          -          -          -          -         
           32         33         -               0.0        -          -          -          -          -         
           33         32         -               0.0        -          -          -          -          -         
           32         107        -               0.0        -          -          -          -          -         
           107        32         -               0.0        -          -          -          -          -         
           33         34         -               0.0        -          -          -          -          -         
           34         33         -               0.0        -          -          -          -          -         
           33         108        -               0.0        -          -          -          -          -         
           108        33         -               0.0        -          -          -          -          -         
           34         35         -               0.0        -          -          -          -          -         
           35         34         -               0.0        -          -          -          -          -         
           34         109        -               0.0        -          -          -          -          -         
           109        34         -               0.0        -          -          -          -          -         
           35         36         -               0.0        -          -          -          -          -         
           36         35         -               0.0        -          -          -          -          -         
           35         110        -               0.0        -          -          -          -          -         
           110        35         -               0.0        -          -          -          -          -         
           36         37         -               0.0        -          -          -          -          -         
           37         36         -               0.0        -          -          -          -          -         
           36         111        -               0.0        -          -          -          -          -         
           111        36         -               0.0        -          -          -          -          -         
           37         38         -               0.0        -          -          -          -          -         
           38         37         -               0.0        -          -          -          -          -         
           37         112        -               0.0        -          -          -          -          -         
           112        37         -               0.0        -          -          -          -          -         
           38         39         -               0.0        -          -          -          -          -         
           39         38         -               0.0        -          -          -          -          -         
           38         113        -               0.0        -          -          -          -          -         
           113        38         -               0.0        -          -          -          -          -         
           39         40         -               0.0        -          -          -          -          -         
           40         39         -               0.0        -          -          -          -          -         
           39         114        -               0.0        -          -          -          -          -         
           114        39         -               0.0        -          -          -          -          -         
           40         41         -               0.0        -          -          -          -          -         
           41         40         -               0.0        -          -          -          -          -         
           40         115        -               0.0        -          -          -          -          -         
           115        40         -               0.0        -          -          -          -          -         
           41         42         -               0.0        -          -          -          -          -         
           42         41         -               0.0        -          -          -          -          -         
           41         116        -               0.0        -          -          -          -          -         
           116        41         -               0.0        -          -          -          -          -         
           42         43         -               0.0        -          -          -          -          -         
           43         42         -               0.0        -          -          -          -          -         
           42         117        -               0.0        -          -          -          -          -         
           117        42         -               0.0        -          -          -          -          -         
           43         44         -               0.0        -          -          -          -          -         
           44         43         -               0.0        -          -          -          -          -         
           43         118        -               0.0        -          -          -          -          -         
           118        43         -               0.0        -          -          -          -          -         
           44         45         -               0.0        -          -          -          -          -         
           45         44         -               0.0        -          -          -          -          -         
           44         119        -               0.0        -          -          -          -          -         
           119        44         -               0.0        -          -          -          -          -         
           45         46         -               0.0        -          -          -          -          -         
           46         45         -               0.0        -          -          -          -          -         
           45         120        -               0.0        -          -          -          -          -         
           120        45         -               0.0        -          -          -          -          -         
           46         47         -               0.0        -          -          -          -          -         
           47         46         -               0.0        -          -          -          -          -         
           46         121        -               0.0        -          -          -          -          -         
           121        46         -               0.0        -          -          -          -          -         
           47         48         -               0.0        -          -          -          -          -         
           48         47         -               0.0        -          -          -          -          -         
           47         122        -               0.0        -          -          -          -          -         
           122        47         -               0.0        -          -          -          -          -         
           48         49         -               0.0        -          -          -          -          -         
           49         48         -               0.0        -          -          -          -          -         
           48         123        -               0.0        -          -          -          -          -         
           123        48         -               0.0        -          -          -          -          -         
           49         50         -               0.0        -          -          -          -          -         
           50         49         -               0.0        -          -          -          -          -         
           49         124        -               0.0        -          -          -          -          -         
           124        49         -               0.0        -          -          -          -          -         
           50         51         -               0.0        -          -          -          -          -         
           51         50         -               0.0        -          -          -          -          -         
           50         125        -               0.0        -          -          -          -          -         
           125        50         -               0.0        -          -          -          -          -         
           51         52         -               0.0        -          -          -          -          -         
           52         51         -               0.0        -          -          -          -          -         
           51         126        -               0.0        -          -          -          -          -         
           126        51         -               0.0        -          -          -          -          -         
           52         53         -               0.0        -          -          -          -          -         
           53         52         -               0.0        -          -          -          -          -         
           52         127        -               0.0        -          -          -          -          -         
           127        52         -               0.0        -          -          -          -          -         
           53         54         -               0.0        -          -          -          -          -         
           54         53         -               0.0        -          -          -          -          -         
           53         128        -               0.0        -          -          -          -          -         
           128        53         -               0.0        -          -          -          -          -         
           54         55         -               0.0        -          -          -          -          -         
           55         54         -               0.0        -          -          -          -          -         
           54         129        -               0.0        -          -          -          -          -         
           129        54         -               0.0        -          -          -          -          -         
           55         56         -               0.0        -          -          -          -          -         
           56         55         -               0.0        -          -          -          -          -         
           55         130        -               0.0        -          -          -          -          -         
           130        55         -               0.0        -          -          -          -          -         
           56         57         -               0.0        -          -          -          -          -         
           57         56         -               0.0        -          -          -          -          -         
           56         131        -               0.0        -          -          -          -          -         
           131        56         -               0.0        -          -          -          -          -         
           57         58         -               0.0        -          -          -          -          -         
           58         57         -               0.0        -          -          -          -          -         
           57         132        -               0.0        -          -          -          -          -         
           132        57         -               0.0        -          -          -          -          -         
           58         59         -               0.0        -          -          -          -          -         
           59         58         -               0.0        -          -          -          -          -         
           58         133        -               0.0        -          -          -          -          -         
           133        58         -               0.0        -          -          -          -          -         
           59         60         -               0.0        -          -          -          -          -         
           60         59         -               0.0        -          -          -          -          -         
           59         134        -               0.0        -          -          -          -          -         
           134        59         -               0.0        -          -          -          -          -         
           60         61         -               0.0        -          -          -          -          -         
           61         60         -               0.0        -          -          -          -          -         
           60         135        -               0.0        -          -          -          -          -         
           135        60         -               0.0        -          -          -          -          -         
           61         62         -               0.0        -          -          -          -          -         
           62         61         -               0.0        -          -          -          -          -         
           61         136        -               0.0        -          -          -          -          -         
           136        61         -               0.0        -          -          -          -          -         
           62         63         -               0.0        -          -          -          -          -         
           63         62         -               0.0        -          -          -          -          -         
           62         137        -               0.0        -          -          -          -          -         
           137        62         -               0.0        -          -          -          -          -         
           63         64         -               0.0        -          -          -          -          -         
           64         63         -               0.0        -          -          -          -          -         
           63         138        -               0.0        -          -          -          -          -         
           138        63         -               0.0        -          -          -          -          -         
           64         65         -               0.0        -          -          -          -          -         
           65         64         -               0.0        -          -          -          -          -         