<NUMBER OF ZONES> 595       
<NUMBER OF NODES> 595       
<FIRST THRU NODE> 1         
<NUMBER OF LINKS> 2276      
<END OF METADATA>


~          Init       node       Term node       Capacity   Length     Free Flow Time B          Power      Speed limit
           0          1          -               0.0        -          -          -          -          -         
           1          0          -               0.0        -          -          -          -          -         
           0          35         -               0.0        -          -          -          -          -         
           35         0          -               0.0        -          -          -          -          -         
           1          2          -               0.0        -          -          -          -          -         
           2          1          -               0.0        -          -          -          -          -         
           1          36         -               0.0        -          -          -          -          -         
           36         1          -               0.0        -          -          -          -          -         
           2          3          -               0.0        -          -          -          -          -         
           3          2          -               0.0        -          -          -          -          -         
           2          37         -               0.0        -          -          -          -          -         
           37         2          -               0.0        -          -          -          -          -         
           3          4          -               0.0        -          -          -          -          -         
           4          3          -               0.0        -          -          -          -          -         
           3          38         -               0.0        -          -          -          -          -         
           38         3          -               0.0        -          -          -          -          -         
           4          5          -               0.0        -          -          -          -          -         
           5          4          -               0.0        -          -          -          -          -         
           4          39         -               0.0        -          -          -          -          -         
           39         4          -               0.0        -          -          -          -          -         
           5          6          -               0.0        -          -          -          -          -         
           6          5          -               0.0        -          -          -          -          -         
           5          40         -               0.0        -          -          -          -          -         
           40         5          -               0.0        -          -          -          -          -         
           6          7          -               0.0        -          -          -          -          -         
           7          6          -               0.0        -          -          -          -          -         
           6          41         -               0.0        -          -          -          -          -         
           41         6          -               0.0        -          -          -          -          -         
           7          8          -               0.0        -          -          -          -          -         
           8          7          -               0.0        -          -          -          -          -         
           7          42         -               0.0        -          -          -          -          -         
           42         7          -               0.0        -          -          -          -          -         
           8          9          -               0.0        -          -          -          -          -         
           9          8          -               0.0        -          -          -          -          -         
           8          43         -               0.0        -          -          -          -          -         
           43         8          -               0.0        -          -          -          -          -         
           9          10         -               0.0        -          -          -          -          -         
           10         9          -               0.0        -          -          -          -          -         
           9          44         -               0.0        -          -          -          -          -         
           44         9          -               0.0        -          -          -          -          -         
           10         11         -               0.0        -          -          -          -          -         
           11         10         -               0.0        -          -          -          -          -         
           10         45         -               0.0        -          -          -          -          -         
           45         10         -               0.0        -          -          -          -          -         
           11         12         -               0.0        -          -          -          -          -         
           12         11         -               0.0        -          -          -          -          -         
           11         46         -               0.0        -          -          -          -          -         
           46         11         -               0.0        -          -          -          -          -         
           12         13         -               0.0        -          -          -          -          -         
           13         12         -               0.0        -          -          -          -          -         
           12         47         -               0.0        -          -          -          -          -         
           47         12         -               0.0        -          -          -          -          -         
           13         14         -               0.0        -          -          -          -          -         
           14         13         -               0.0        -          -          -          -          -         
           13         48         -               0.0        -          -          -          -          -         
           48         13         -               0.0        -          -          -          -          -         
           14         15         -               0.0        -          -          -          -          -         
           15         14         -               0.0        -          -          -          -          -         
           14         49         -               0.0        -          -          -          -          -         
           49         14         -               0.0        -          -          -          -          -         
           15         16         -               0.0        -          -          -          -          -         
           16         15         -               0.0        -          -          -          -          -         
           15         50         -               0.0        -          -          -          -          -         
           50         15         -               0.0        -          -          -          -          -         
           16         17         -               0.0        -          -          -          -          -         
           17         16         -               0.0        -          -          -          -          -         
           16         51         -               0.0        -          -          -          -          -         
           51         16         -               0.0        -          -          -          -          -         
           17         18         -               0.0        -          -          -          -          -         
           18         17         -               0.0        -          -          -          -          -         
           17         52         -               0.0        -          -          -          -          -         
           52         17         -               0.0        -          -          -          -          -         
           18         19         -               0.0        -          -          -          -          -         
           19         18         -               0.0        -          -          -          -          -         
           18         53         -               0.0        -          -          -          -          -         
           53         18         -               0.0        -          -          -          -          -         
           19         20         -               0.0        -          -          -          -          -         
           20         19         -               0.0        -          -          -          -          -         
           19         54         -               0.0        -          -          -          -          -         
           54         19         -               0.0        -          -          -          -          -         
           20         21         -               0.0        -          -          -          -          -         
           21         20         -               0.0        -          -          -          -          -         
           20         55         -               0.0        -          -          -          -          -         
           55         20         -               0.0        -          -          -          -          -         
           21         22         -               0.0        -          -          -          -          -         
           22         21         -               0.0        -          -          -          -          -         
           21         56         -               0.0        -          -          -          -          -         
           56         21         -               0.0        -          -          -          -          -         
           22         23         -               0.0        -          -          -          -          -         
           23         22         -               0.0        -          -          -          -          -         
           22         57         -               0.0        -          -          -          -          -         
           57         22         -               0.0        -          -          -          -          -         
           23         24         -               0.0        -          -          -          -          -         
           24         23         -               0.0        -          -          -          -          -         
           23         58         -               0.0        -          -          -          -          -         
           58         23         -               0.0        -          -          -          -          -         
           24         25         -               0.0        -          -          -          -          -         
           25         24         -               0.0        -          -          -          -          -         
           24         59         -               0.0        -          -          -          -          -         
           59         24         -               0.0        -          -          -          -          -         
           25         26         -               0.0        -          -          -          -          -         
           26         25         -               0.0        -          -          -          -          -         
           25         60         -               0.0        -          -          -          -          -         
           60         25         -               0.0        -          -          -          -          -         
           26         27         -               0.0        -          -          -          -          -         
           27         26         -               0.0        -          -          -          -          -         
           26         61         -               0.0        -          -          -          -          -         
           61         26         -               0.0        -          -          -          -          -         
           27         28         -               0.0        -          -          -          -          -         
           28         27         -               0.0        -          -          -          -          -         
           27         62         -               0.0        -          -          -          -          -         
           62         27         -               0.0        -          -          -          -          -         
           28         29         -               0.0        -          -          -          -          -         
           29         28         -               0.0        -          -          -          -          -         
           28         63         -               0.0        -          -          -          -          -         
           63         28         -               0.0        -          -          -          -          -         
           29         30         -               0.0        -          -          -          -          -         
           30         29         -               0.0        -          -          -          -          -         
           29         64         -               0.0        -          -          -          -          -         
           64         29         -               0.0        -          -          -          -          -         
           30         31         -               0.0        -          -          -          -          -         
           31         30         -               0.0        -          -          -          -          -         
           30         65         -               0.0        -          -          -          -          -         
           65         30         -               0.0        -          -          -          -          -         
           31         32         -               0.0        -          -          -          -          -         
           32         31         -               0.0        -          -          -          -          -         
           31         66         -               0.0        -          -          -          -          -         
           66         31         -               0.0        -          -          -          -          -         
           32         33         -               0.0        -          -          -          -          -         
           33         32         -               0.0        -          -          -          -          -         
           32         67         -               0.0        -          -          -          -          -         
           67         32         -               0.0        -          -          -          -          -         
           33         34         -               0.0        -          -          -          -          -         
           34         33         -               0.0        -          -          -          -          -         
           33         68         -               0.0        -          -          -          -          -         
           68         33         -               0.0        -          -          -          -          -         
           34         69         -               0.0        -          -          -          -          -         
           69         34         -               0.0        -          -          -          -          -         
           35         36         -               0.0        -          -          -          -          -         
           36         35         -               0.0        -          -          -          -          -         
           35         70         -               0.0        -          -          -          -          -         
           70         35         -               0.0        -          -          -          -          -         
           36         37         -               0.0        -          -          -          -          -         
           37         36         -               0.0        -          -          -          -          -         
           36         71         -               0.0        -          -          -          -          -         
           71         36         -               0.0        -          -          -          -          -         
           37         38         -               0.0        -          -          -          -          -         
           38         37         -               0.0        -          -          -          -          -         
           37         72         -               0.0        -          -          -          -          -         
           72         37         -               0.0        -          -          -          -          -         
           38         39         -               0.0        -          -          -          -          -         
           39         38         -               0.0        -          -          -          -          -         
           38         73         -               0.0        -          -          -          -          -         
           73         38         -               0.0        -          -          -          -          -         
           39         40         -               0.0        -          -          -          -          -         
           40         39         -               0.0        -          -          -          -          -         
           39         74         -               0.0        -          -          -          -          -         
           74         39         -               0.0        -          -          -          -          -         
           40         41         -               0.0        -          -          -          -          -         
           41         40         -               0.0        -          -          -          -          -         
           40         75         -               0.0        -          -          -          -          -         
           75         40         -               0.0        -          -          -          -          -         
           41         42         -               0.0        -          -          -          -          -         
           42         41         -               0.0        -          -          -          -          -         
           41         76         -               0.0        -          -          -          -          -         
           76         41         -               0.0        -          -          -          -          -         
           42         43         -               0.0        -          -          -          -          -         
           43         42         -               0.0        -          -          -          -          -         
           42         77         -               0.0        -          -          -          -          -         
           77         42         -               0.0        -          -          -          -          -         
           43         44         -               0.0        -          -          -          -          -         
           44         43         -               0.0        -          -          -          -          -         
           43         78         -               0.0        -          -          -          -          -         
           78         43         -               0.0        -          -          -          -          -         
           44         45         -               0.0        -          -          -          -          -         
           45         44         -               0.0        -          -          -          -          -         
           44         79         -               0.0        -          -          -          -          -         
           79         44         -               0.0        -          -          -          -          -         
           45         46         -               0.0        -          -          -          -          -         
           46         45         -               0.0        -          -          -          -          -         
           45         80         -               0.0        -          -          -          -          -         
           80         45         -               0.0        -          -          -          -          -         
           46         47         -               0.0        -          -          -          -          -         
           47         46         -               0.0        -          -          -          -          -         
           46         81         -               0.0        -          -          -          -          -         
           81         46         -               0.0        -          -          -          -          -         
           47         48         -               0.0        -          -          -          -          -         
           48         47         -               0.0        -          -          -          -          -         
           47         82         -               0.0        -          -          -          -          -         
           82         47         -               0.0        -          -          -          -          -         
           48         49         -               0.0        -          -          -          -          -         
           49         48         -               0.0        -          -          -          -          -         
           48         83         -               0.0        -          -          -          -          -         
           83         48         -               0.0        -          -          -          -          -         
           49         50         -               0.0        -          -          -          -          -         
           50         49         -               0.0        -          -          -          -          -         
           49         84         -               0.0        -          -          -          -          -         
           84         49         -               0.0        -          -          -          -          -         
           50         51         -               0.0        -          -          -          -          -         
           51         50         -               0.0        -          -          -          -          -         
           50         85         -               0.0        -          -          -          -          -         
           85         50         -               0.0        -          -          -          -          -         
           51         52         -               0.0        -          -          -          -          -         
           52         51         -               0.0        -          -          -          -          -         
           51         86         -               0.0        -          -          -          -          -         
           86         51         -               0.0        -          -          -          -          -         
           52         53         -               0.0        -          -          -          -          -         
           53         52         -               0.0        -          -          -          -          -         
           52         87         -               0.0        -          -          -          -          -         
           87         52         -               0.0        -          -          -          -          -         
           53         54         -               0.0        -          -          -          -          -         
           54         53         -               0.0        -          -          -          -          -         
           53         88         -               0.0        -          -          -          -          -         
           88         53         -               0.0        -          -          -          -          -         
           54         55         -               0.0        -          -          -          -          -         
           55         54         -               0.0        -          -          -          -          -         
           54         89         -               0.0        -          -          -          -          -         
           89         54         -               0.0        -          -          -          -          -         
           55         56         -               0.0        -          -          -          -          -         
           56         55         -               0.0        -          -          -          -          -         
           55         90         -               0.0        -          -          -          -          -         
           90         55         -               0.0        -          -          -          -          -         
           56         57         -               0.0        -          -          -          -          -         
           57         56         -               0.0        -          -          -          -          -         
           56         91         -               0.0        -          -          -          -          -         
           91         56         -               0.0        -          -          -          -          -         
           57         58         -               0.0        -          -          -          -          -         
           58         57         -               0.0        -          -          -          -          -         
           57         92         -               0.0        -          -          -          -          -         
           92         57         -               0.0        -          -          -          -          -         
           58         59         -               0.0        -          -          -          -          -         
           59         58         -               0.0        -          -          -          -          -         
           58         93         -               0.0        -          -          -          -          -         
           93         58         -               0.0        -          -          -          -          -         
           59         60         -               0.0        -          -          -          -          -         
           60         59         -               0.0        -          -          -          -          -         
           59         94         -               0.0        -          -          -          -          -         
           94         59         -               0.0        -          -          -          -          -         
           60         61         -               0.0        -          -          -          -          -         
           61         60         -               0.0        -          -          -          -          -         
           60         95         -               0.0        -          -          -          -          -         
           95         60         -               0.0        -          -          -          -          -         
           61         62         -               0.0        -          -          -          -          -         
           62         61         -               0.0        -          -          -          -          -         
           61         96         -               0.0        -          -          -          -          -         
           96         61         -               0.0        -          -          -          -          -         
           62         63         -               0.0        -          -          -          -          -         
           63         62         -               0.0        -          -          -          -          -         
           62         97         -               0.0        -          -          -          -          -         
           97         62         -               0.0        -          -          -          -          -         
           63         64         -               0.0        -          -          -          -          -         
           64         63         -               0.0        -          -          -          -          -         
           63         98         -               0.0        -          -          -          -          -         
           98         63         -               0.0        -          -          -          -          -         
           64         65         -               0.0        -          -          -          -          -         
           65         64         -               0.0        -          -          -          -          -         
           64         99         -               0.0        -          -          -          -          -         
           99         64         -               0.0        -          -          -          -          -         