<NUMBER OF ZONES> 304       
<NUMBER OF NODES> 304       
<FIRST THRU NODE> 1         
<NUMBER OF LINKS> 1056      
<END OF METADATA>


~          Init       node       Term node       Capacity   Length     Free Flow Time B          Power      Speed limit
           0          1          -               0.0        -          -          -          -          -         
           1          0          -               0.0        -          -          -          -          -         
           0          76         -               0.0        -          -          -          -          -         
           76         0          -               0.0        -          -          -          -          -         
           1          2          -               0.0        -          -          -          -          -         
           2          1          -               0.0        -          -          -          -          -         
           1          77         -               0.0        -          -          -          -          -         
           77         1          -               0.0        -          -          -          -          -         
           2          3          -               0.0        -          -          -          -          -         
           3          2          -               0.0        -          -          -          -          -         
           2          78         -               0.0        -          -          -          -          -         
           78         2          -               0.0        -          -          -          -          -         
           3          4          -               0.0        -          -          -          -          -         
           4          3          -               0.0        -          -          -          -          -         
           3          79         -               0.0        -          -          -          -          -         
           79         3          -               0.0        -          -          -          -          -         
           4          5          -               0.0        -          -          -          -          -         
           5          4          -               0.0        -          -          -          -          -         
           4          80         -               0.0        -          -          -          -          -         
           80         4          -               0.0        -          -          -          -          -         
           5          6          -               0.0        -          -          -          -          -         
           6          5          -               0.0        -          -          -          -          -         
           5          81         -               0.0        -          -          -          -          -         
           81         5          -               0.0        -          -          -          -          -         
           6          7          -               0.0        -          -          -          -          -         
           7          6          -               0.0        -          -          -          -          -         
           6          82         -               0.0        -          -          -          -          -         
           82         6          -               0.0        -          -          -          -          -         
           7          8          -               0.0        -          -          -          -          -         
           8          7          -               0.0        -          -          -          -          -         
           7          83         -               0.0        -          -          -          -          -         
           83         7          -               0.0        -          -          -          -          -         
           8          9          -               0.0        -          -          -          -          -         
           9          8          -               0.0        -          -          -          -          -         
           8          84         -               0.0        -          -          -          -          -         
           84         8          -               0.0        -          -          -          -          -         
           9          10         -               0.0        -          -          -          -          -         
           10         9          -               0.0        -          -          -          -          -         
           9          85         -               0.0        -          -          -          -          -         
           85         9          -               0.0        -          -          -          -          -         
           10         11         -               0.0        -          -          -          -          -         
           11         10         -               0.0        -          -          -          -          -         
           10         86         -               0.0        -          -          -          -          -         
           86         10         -               0.0        -          -          -          -          -         
           11         12         -               0.0        -          -          -          -          -         
           12         11         -               0.0        -          -          -          -          -         
           11         87         -               0.0        -          -          -          -          -         
           87         11         -               0.0        -          -          -          -          -         
           12         13         -               0.0        -          -          -          -          -         
           13         12         -               0.0        -          -          -          -          -         
           12         88         -               0.0        -          -          -          -          -         
           88         12         -               0.0        -          -          -          -          -         
           13         14         -               0.0        -          -          -          -          -         
           14         13         -               0.0        -          -          -          -          -         
           13         89         -               0.0        -          -          -          -          -         
           89         13         -               0.0        -          -          -          -          -         
           14         15         -               0.0        -          -          -          -          -         
           15         14         -               0.0        -          -          -          -          -         
           14         90         -               0.0        -          -          -          -          -         
           90         14         -               0.0        -          -          -          -          -         
           15         16         -               0.0        -          -          -          -          -         
           16         15         -               0.0        -          -          -          -          -         
           15         91         -               0.0        -          -          -          -          -         
           91         15         -               0.0        -          -          -          -          -         
           16         17         -               0.0        -          -          -          -          -         
           17         16         -               0.0        -          -          -          -          -         
           16         92         -               0.0        -          -          -          -          -         
           92         16         -               0.0        -          -          -          -          -         
           17         18         -               0.0        -          -          -          -          -         
           18         17         -               0.0        -          -          -          -          -         
           17         93         -               0.0        -          -          -          -          -         
           93         17         -               0.0        -          -          -          -          -         
           18         19         -               0.0        -          -          -          -          -         
           19         18         -               0.0        -          -          -          -          -         
           18         94         -               0.0        -          -          -          -          -         
           94         18         -               0.0        -          -          -          -          -         
           19         20         -               0.0        -          -          -          -          -         
           20         19         -               0.0        -          -          -          -          -         
           19         95         -               0.0        -          -          -          -          -         
           95         19         -               0.0        -          -          -          -          -         
           20         21         -               0.0        -          -          -          -          -         
           21         20         -               0.0        -          -          -          -          -         
           20         96         -               0.0        -          -          -          -          -         
           96         20         -               0.0        -          -          -          -          -         
           21         22         -               0.0        -          -          -          -          -         
           22         21         -               0.0        -          -          -          -          -         
           21         97         -               0.0        -          -          -          -          -         
           97         21         -               0.0        -          -          -          -          -         
           22         23         -               0.0        -          -          -          -          -         
           23         22         -               0.0        -          -          -          -          -         
           22         98         -               0.0        -          -          -          -          -         
           98         22         -               0.0        -          -          -          -          -         
           23         24         -               0.0        -          -          -          -          -         
           24         23         -               0.0        -          -          -          -          -         
           23         99         -               0.0        -          -          -          -          -         
           99         23         -               0.0        -          -          -          -          -         
           24         25         -               0.0        -          -          -          -          -         
           25         24         -               0.0        -          -          -          -          -         
           24         100        -               0.0        -          -          -          -          -         
           100        24         -               0.0        -          -          -          -          -         
           25         26         -               0.0        -          -          -          -          -         
           26         25         -               0.0        -          -          -          -          -         
           25         101        -               0.0        -          -          -          -          -         
           101        25         -               0.0        -          -          -          -          -         
           26         27         -               0.0        -          -          -          -          -         
           27         26         -               0.0        -          -          -          -          -         
           26         102        -               0.0        -          -          -          -          -         
           102        26         -               0.0        -          -          -          -          -         
           27         28         -               0.0        -          -          -          -          -         
           28         27         -               0.0        -          -          -          -          -         
           27         103        -               0.0        -          -          -          -          -         
           103        27         -               0.0        -          -          -          -          -         
           28         29         -               0.0        -          -          -          -          -         
           29         28         -               0.0        -          -          -          -          -         
           28         104        -               0.0        -          -          -          -          -         
           104        28         -               0.0        -          -          -          -          -         
           29         30         -               0.0        -          -          -          -          -         
           30         29         -               0.0        -          -          -          -          -         
           29         105        -               0.0        -          -          -          -          -         
           105        29         -               0.0        -          -          -          -          -         
           30         31         -               0.0        -          -          -          -          -         
           31         30         -               0.0        -          -          -          -          -         
           30         106        -               0.0        -          -          -          -          -         
           106        30         -               0.0        -          -          -          -          -         
           31         32         -               0.0        -          -          -          -          -         
           32         31         -               0.0        -          -          -          -          -         
           31         107        -               0.0        -          -          -          -          -         
           107        31         -               0.0        -          -          -          -          -         
           32         33         -               0.0        -          -          -          -          -         
           33         32         -               0.0        -          -          -          -          -         
           32         108        -               0.0        -          -          -          -          -         
           108        32         -               0.0        -          -          -          -          -         
           33         34         -               0.0        -          -          -          -          -         
           34         33         -               0.0        -          -          -          -          -         
           33         109        -               0.0        -          -          -          -          -         
           109        33         -               0.0        -          -          -          -          -         
           34         35         -               0.0        -          -          -          -          -         
           35         34         -               0.0        -          -          -          -          -         
           34         110        -               0.0        -          -          -          -          -         
           110        34         -               0.0        -          -          -          -          -         
           35         36         -               0.0        -          -          -          -          -         
           36         35         -               0.0        -          -          -          -          -         
           35         111        -               0.0        -          -          -          -          -         
           111        35         -               0.0        -          -          -          -          -         
           36         37         -               0.0        -          -          -          -          -         
           37         36         -               0.0        -          -          -          -          -         
           36         112        -               0.0        -          -          -          -          -         
           112        36         -               0.0        -          -          -          -          -         
           37         38         -               0.0        -          -          -          -          -         
           38         37         -               0.0        -          -          -          -          -         
           37         113        -               0.0        -          -          -          -          -         
           113        37         -               0.0        -          -          -          -          -         
           38         39         -               0.0        -          -          -          -          -         
           39         38         -               0.0        -          -          -          -          -         
           38         114        -               0.0        -          -          -          -          -         
           114        38         -               0.0        -          -          -          -          -         
           39         40         -               0.0        -          -          -          -          -         
           40         39         -               0.0        -          -          -          -          -         
           39         115        -               0.0        -          -          -          -          -         
           115        39         -               0.0        -          -          -          -          -         
           40         41         -               0.0        -          -          -          -          -         
           41         40         -               0.0        -          -          -          -          -         
           40         116        -               0.0        -          -          -          -          -         
           116        40         -               0.0        -          -          -          -          -         
           41         42         -               0.0        -          -          -          -          -         
           42         41         -               0.0        -          -          -          -          -         
           41         117        -               0.0        -          -          -          -          -         
           117        41         -               0.0        -          -          -          -          -         
           42         43         -               0.0        -          -          -          -          -         
           43         42         -               0.0        -          -          -          -          -         
           42         118        -               0.0        -          -          -          -          -         
           118        42         -               0.0        -          -          -          -          -         
           43         44         -               0.0        -          -          -          -          -         
           44         43         -               0.0        -          -          -          -          -         
           43         119        -               0.0        -          -          -          -          -         
           119        43         -               0.0        -          -          -          -          -         
           44         45         -               0.0        -          -          -          -          -         
           45         44         -               0.0        -          -          -          -          -         
           44         120        -               0.0        -          -          -          -          -         
           120        44         -               0.0        -          -          -          -          -         
           45         46         -               0.0        -          -          -          -          -         
           46         45         -               0.0        -          -          -          -          -         
           45         121        -               0.0        -          -          -          -          -         
           121        45         -               0.0        -          -          -          -          -         
           46         47         -               0.0        -          -          -          -          -         
           47         46         -               0.0        -          -          -          -          -         
           46         122        -               0.0        -          -          -          -          -         
           122        46         -               0.0        -          -          -          -          -         
           47         48         -               0.0        -          -          -          -          -         
           48         47         -               0.0        -          -          -          -          -         
           47         123        -               0.0        -          -          -          -          -         
           123        47         -               0.0        -          -          -          -          -         
           48         49         -               0.0        -          -          -          -          -         
           49         48         -               0.0        -          -          -          -          -         
           48         124        -               0.0        -          -          -          -          -         
           124        48         -               0.0        -          -          -          -          -         
           49         50         -               0.0        -          -          -          -          -         
           50         49         -               0.0        -          -          -          -          -         
           49         125        -               0.0        -          -          -          -          -         
           125        49         -               0.0        -          -          -          -          -         
           50         51         -               0.0        -          -          -          -          -         
           51         50         -               0.0        -          -          -          -          -         
           50         126        -               0.0        -          -          -          -          -         
           126        50         -               0.0        -          -          -          -          -         
           51         52         -               0.0        -          -          -          -          -         
           52         51         -               0.0        -          -          -          -          -         
           51         127        -               0.0        -          -          -          -          -         
           127        51         -               0.0        -          -          -          -          -         
           52         53         -               0.0        -          -          -          -          -         
           53         52         -               0.0        -          -          -          -          -         
           52         128        -               0.0        -          -          -          -          -         
           128        52         -               0.0        -          -          -          -          -         
           53         54         -               0.0        -          -          -          -          -         
           54         53         -               0.0        -          -          -          -          -         
           53         129        -               0.0        -          -          -          -          -         
           129        53         -               0.0        -          -          -          -          -         
           54         55         -               0.0        -          -          -          -          -         
           55         54         -               0.0        -          -          -          -          -         
           54         130        -               0.0        -          -          -          -          -         
           130        54         -               0.0        -          -          -          -          -         
           55         56         -               0.0        -          -          -          -          -         
           56         55         -               0.0        -          -          -          -          -         
           55         131        -               0.0        -          -          -          -          -         
           131        55         -               0.0        -          -          -          -          -         
           56         57         -               0.0        -          -          -          -          -         
           57         56         -               0.0        -          -          -          -          -         
           56         132        -               0.0        -          -          -          -          -         
           132        56         -               0.0        -          -          -          -          -         
           57         58         -               0.0        -          -          -          -          -         
           58         57         -               0.0        -          -          -          -          -         
           57         133        -               0.0        -          -          -          -          -         
           133        57         -               0.0        -          -          -          -          -         
           58         59         -               0.0        -          -          -          -          -         
           59         58         -               0.0        -          -          -          -          -         
           58         134        -               0.0        -          -          -          -          -         
           134        58         -               0.0        -          -          -          -          -         
           59         60         -               0.0        -          -          -          -          -         
           60         59         -               0.0        -          -          -          -          -         
           59         135        -               0.0        -          -          -          -          -         
           135        59         -               0.0        -          -          -          -          -         
           60         61         -               0.0        -          -          -          -          -         
           61         60         -               0.0        -          -          -          -          -         
           60         136        -               0.0        -          -          -          -          -         
           136        60         -               0.0        -          -          -          -          -         
           61         62         -               0.0        -          -          -          -          -         
           62         61         -               0.0        -          -          -          -          -         
           61         137        -               0.0        -          -          -          -          -         
           137        61         -               0.0        -          -          -          -          -         
           62         63         -               0.0        -          -          -          -          -         
           63         62         -               0.0        -          -          -          -          -         
           62         138        -               0.0        -          -          -          -          -         
           138        62         -               0.0        -          -          -          -          -         
           63         64         -               0.0        -          -          -          -          -         
           64         63         -               0.0        -          -          -          -          -         
           63         139        -               0.0        -          -          -          -          -         
           139        63         -               0.0        -          -          -          -          -         
           64         65         -               0.0        -          -          -          -          -         
           65         64         -               0.0        -          -          -          -          -         